Version 4
SHEET 1 928 680
WIRE 112 -448 112 -496
WIRE 112 -336 112 -368
WIRE 240 -336 112 -336
WIRE 848 -320 304 -320
WIRE 240 -304 -48 -304
WIRE 112 -288 112 -336
WIRE 272 -272 272 -288
WIRE 112 -176 112 -208
WIRE 240 -176 112 -176
WIRE 752 -160 304 -160
WIRE -48 -144 -48 -304
WIRE 240 -144 -48 -144
WIRE 112 -128 112 -176
WIRE 272 -112 272 -128
WIRE 656 -48 336 -48
WIRE 560 -32 352 -32
WIRE 112 -16 112 -48
WIRE 240 -16 112 -16
WIRE 464 -16 368 -16
WIRE 336 0 336 -48
WIRE 336 0 304 0
WIRE 464 0 464 -16
WIRE 560 0 560 -32
WIRE 656 0 656 -48
WIRE 752 0 752 -160
WIRE 848 0 848 -320
WIRE -48 16 -48 -144
WIRE -48 16 -192 16
WIRE 240 16 -48 16
WIRE 112 32 112 -16
WIRE -192 48 -192 16
WIRE 272 48 272 32
WIRE 464 112 464 64
WIRE 560 112 560 64
WIRE 656 112 656 64
WIRE 752 112 752 64
WIRE 848 112 848 64
WIRE 112 144 112 112
WIRE 240 144 112 144
WIRE 352 160 352 -32
WIRE 352 160 304 160
WIRE -48 176 -48 16
WIRE 240 176 -48 176
WIRE -192 192 -192 128
WIRE 112 192 112 144
WIRE 272 208 272 192
WIRE 464 256 464 192
WIRE 560 256 560 192
WIRE 656 256 656 192
WIRE 752 256 752 192
WIRE 848 256 848 192
WIRE 112 304 112 272
WIRE 240 304 112 304
WIRE 368 320 368 -16
WIRE 368 320 304 320
WIRE -48 336 -48 176
WIRE 240 336 -48 336
WIRE 112 352 112 304
WIRE 272 368 272 352
WIRE 112 480 112 432
FLAG 272 368 0
FLAG 272 208 0
FLAG 272 -112 0
FLAG 272 48 0
FLAG 272 -272 0
FLAG 464 256 0
FLAG 560 256 0
FLAG 656 256 0
FLAG 752 256 0
FLAG 848 256 0
FLAG 272 288 VCC
FLAG 272 128 VCC
FLAG 272 -32 VCC
FLAG 272 -352 VCC
FLAG 112 480 0
FLAG -208 -64 0
FLAG -208 -144 VCC
FLAG -192 192 0
FLAG 112 -496 VCC
FLAG 272 -192 VCC
SYMBOL LED 544 0 R0
SYMATTR InstName D2
SYMBOL LED 640 0 R0
SYMATTR InstName D3
SYMBOL LED 736 0 R0
SYMATTR InstName D4
SYMBOL LED 832 0 R0
SYMATTR InstName D5
SYMBOL res 448 96 R0
SYMATTR InstName R1
SYMATTR Value 1k
SYMBOL res 544 96 R0
SYMATTR InstName R2
SYMATTR Value 1k
SYMBOL res 640 96 R0
SYMATTR InstName R3
SYMATTR Value 1k
SYMBOL res 736 96 R0
SYMATTR InstName R4
SYMATTR Value 1k
SYMBOL res 832 96 R0
SYMATTR InstName R5
SYMATTR Value 1k
SYMBOL res 96 -304 R0
SYMATTR InstName R6
SYMATTR Value 320k
SYMBOL res 96 -144 R0
SYMATTR InstName R7
SYMATTR Value 240k
SYMBOL res 96 16 R0
SYMATTR InstName R8
SYMATTR Value 160k
SYMBOL res 96 176 R0
SYMATTR InstName R9
SYMATTR Value 80k
SYMBOL res 96 336 R0
SYMATTR InstName R10
SYMATTR Value 10k
SYMBOL voltage -208 -160 R0
WINDOW 123 0 0 Left 0
WINDOW 39 0 0 Left 0
SYMATTR InstName V1
SYMATTR Value 5
SYMBOL voltage -192 32 R0
WINDOW 123 0 0 Left 0
WINDOW 39 0 0 Left 0
SYMATTR InstName V2
SYMATTR Value SINE(3 3 10)
SYMBOL res 96 -464 R0
SYMATTR InstName R11
SYMATTR Value 190k
SYMBOL OpAmps\\LT1001 272 -384 R0
SYMATTR InstName U5
SYMBOL OpAmps\\LT1001 272 256 R0
SYMATTR InstName U1
SYMBOL OpAmps\\LT1001 272 96 R0
SYMATTR InstName U2
SYMBOL OpAmps\\LT1001 272 -64 R0
SYMATTR InstName U3
SYMBOL OpAmps\\LT1001 272 -224 R0
SYMATTR InstName U4
SYMBOL LED 448 0 R0
SYMATTR InstName D1
TEXT -80 -448 Left 2 !.tran 1
