Version 4
SHEET 1 1816 680
WIRE -112 128 -192 128
WIRE 96 128 32 128
WIRE 144 128 96 128
WIRE 240 128 208 128
WIRE 320 128 240 128
WIRE 400 128 320 128
WIRE 416 128 400 128
WIRE 544 128 480 128
WIRE 704 128 544 128
WIRE -112 144 -112 128
WIRE 240 192 240 128
WIRE 400 192 400 128
WIRE 544 192 544 128
WIRE 704 192 704 128
WIRE -512 240 -592 240
WIRE -192 240 -192 128
WIRE -192 240 -288 240
WIRE -592 256 -592 240
WIRE -112 272 -112 224
WIRE -112 272 -160 272
WIRE 96 288 96 128
WIRE -512 304 -592 304
WIRE -160 304 -160 272
WIRE -160 304 -288 304
WIRE -112 304 -112 272
WIRE 240 336 240 256
WIRE 272 336 240 336
WIRE 400 336 400 256
WIRE 400 336 336 336
WIRE 464 336 400 336
WIRE 544 336 544 256
WIRE 544 336 464 336
WIRE 592 336 544 336
WIRE 704 336 704 256
WIRE 704 336 656 336
WIRE 848 336 704 336
WIRE 896 336 848 336
WIRE 1232 336 1184 336
WIRE 1344 336 1232 336
WIRE 1440 336 1344 336
WIRE 1232 352 1232 336
WIRE 1344 352 1344 336
WIRE 1440 352 1440 336
WIRE -512 368 -624 368
WIRE -160 368 -288 368
WIRE 704 416 704 336
WIRE -512 432 -576 432
WIRE -240 432 -288 432
WIRE -160 432 -160 368
WIRE -112 432 -112 384
WIRE -112 432 -160 432
WIRE 848 432 848 336
WIRE 896 432 848 432
WIRE 1232 432 1232 416
WIRE 1232 432 1184 432
WIRE 96 448 96 368
WIRE 240 448 240 336
WIRE 240 448 96 448
WIRE 1344 448 1344 416
WIRE 1440 448 1440 432
WIRE -112 464 -112 432
WIRE 336 512 336 480
WIRE 704 528 704 480
WIRE 1040 528 1040 496
WIRE -240 544 -240 496
WIRE -112 544 -112 528
WIRE -112 544 -240 544
WIRE -112 576 -112 544
WIRE 96 576 96 448
WIRE 336 640 336 592
FLAG 1040 528 0
FLAG 1344 448 0
FLAG 1440 448 0
FLAG 1440 336 RegOut
FLAG -592 256 0
FLAG -592 304 RR
FLAG 336 480 VCC
FLAG -192 128 VCC
FLAG -576 432 VCC
FLAG 336 640 0
FLAG -112 576 0
FLAG -624 368 Tout
FLAG -112 432 RR
FLAG 96 576 0
FLAG 704 336 Vo
FLAG 704 528 0
FLAG 32 128 Tout
FLAG 320 128 V1
FLAG 704 128 V2
FLAG 464 336 V3
SYMBOL cap 1328 352 R0
SYMATTR InstName C6
SYMATTR Value 10µ
SYMBOL res 1424 336 R0
SYMATTR InstName Rload
SYMATTR Value 500
SYMBOL PowerProducts\\LT1964-5 1040 384 R0
SYMATTR InstName U1
SYMBOL cap 1216 352 R0
SYMATTR InstName C7
SYMATTR Value 0.01µ
SYMBOL Misc\\NE555 -400 336 R0
SYMATTR InstName U2
SYMBOL voltage 336 496 R0
WINDOW 123 0 0 Left 0
WINDOW 39 0 0 Left 0
SYMATTR InstName V1
SYMATTR Value 9
SYMBOL res -128 128 R0
SYMATTR InstName Ra1
SYMATTR Value 1k
SYMBOL res -128 288 R0
SYMATTR InstName Rb1
SYMATTR Value 10k
SYMBOL cap -128 464 R0
SYMATTR InstName C8
SYMATTR Value 50n
SYMBOL cap -256 432 R0
SYMATTR InstName C9
SYMATTR Value 10n
SYMBOL polcap 144 144 R270
WINDOW 0 32 32 VTop 2
WINDOW 3 0 32 VBottom 2
SYMATTR InstName C1
SYMATTR Value 220µ
SYMBOL polcap 416 144 R270
WINDOW 0 32 32 VTop 2
WINDOW 3 0 32 VBottom 2
SYMATTR InstName C2
SYMATTR Value 220µ
SYMBOL polcap 272 352 R270
WINDOW 0 32 32 VTop 2
WINDOW 3 0 32 VBottom 2
SYMATTR InstName C3
SYMATTR Value 220µ
SYMBOL polcap 592 352 R270
WINDOW 0 32 32 VTop 2
WINDOW 3 0 32 VBottom 2
SYMATTR InstName C4
SYMATTR Value 220µ
SYMBOL diode 224 192 R0
SYMATTR InstName D1
SYMATTR Value 1N4001
SYMBOL diode 384 256 M180
WINDOW 0 24 64 Left 2
WINDOW 3 24 0 Left 2
SYMATTR InstName D2
SYMATTR Value 1N4001
SYMBOL diode 528 192 R0
SYMATTR InstName D3
SYMATTR Value 1N4001
SYMBOL diode 688 256 M180
WINDOW 0 24 64 Left 2
WINDOW 3 24 0 Left 2
SYMATTR InstName D4
SYMATTR Value 1N4001
SYMBOL res 80 272 R0
SYMATTR InstName R1
SYMATTR Value 100k
SYMBOL polcap 720 480 R180
WINDOW 0 24 57 Left 2
WINDOW 3 24 8 Left 2
SYMATTR InstName C5
SYMATTR Value 1µ
TEXT 480 560 Left 2 !.tran 1
