Version 4
SHEET 1 880 680
WIRE 160 16 80 16
WIRE 368 16 240 16
WIRE 480 16 480 -16
WIRE -64 128 -240 128
WIRE 80 128 80 16
WIRE 80 128 16 128
WIRE 160 128 80 128
WIRE 480 128 480 96
WIRE 368 144 368 16
WIRE 368 144 224 144
WIRE 160 160 80 160
WIRE -240 176 -240 128
WIRE 368 192 368 144
WIRE 544 240 544 208
WIRE -240 288 -240 256
WIRE -64 288 -240 288
WIRE 80 288 80 160
WIRE 80 288 -64 288
WIRE 368 288 368 272
WIRE 368 288 80 288
WIRE -64 320 -64 288
WIRE 544 352 544 320
FLAG -64 320 0
FLAG 480 -16 Vcc
FLAG 480 128 0
FLAG 544 352 0
FLAG 544 208 Vee
FLAG 192 176 Vee
FLAG 192 112 Vcc
FLAG -240 128 Vin
FLAG 368 16 Vout
SYMBOL voltage -240 160 R0
WINDOW 123 0 0 Left 0
WINDOW 39 0 0 Left 0
SYMATTR InstName V1
SYMATTR Value SINE(0 1 10)
SYMBOL voltage 480 0 R0
WINDOW 123 0 0 Left 0
WINDOW 39 0 0 Left 0
SYMATTR InstName Vcc
SYMATTR Value 5
SYMBOL voltage 544 336 R180
WINDOW 0 24 96 Left 2
WINDOW 3 24 16 Left 2
WINDOW 123 0 0 Left 0
WINDOW 39 0 0 Left 0
SYMATTR InstName Vee
SYMATTR Value 5
SYMBOL OpAmps\\opamp2 192 80 R0
SYMATTR InstName U1
SYMATTR Value LM324
SYMBOL res 32 112 R90
WINDOW 0 0 56 VBottom 2
WINDOW 3 32 56 VTop 2
SYMATTR InstName R1
SYMATTR Value 10k
SYMBOL res 256 0 R90
WINDOW 0 0 56 VBottom 2
WINDOW 3 32 56 VTop 2
SYMATTR InstName R2
SYMATTR Value 20k
SYMBOL res 352 176 R0
SYMATTR InstName R3
SYMATTR Value 50k
TEXT -24 368 Left 2 !.include LM324.txt
TEXT -274 388 Left 2 !.tran 1
