Version 4
SHEET 1 1624 680
WIRE -704 -32 -848 -32
WIRE -496 -32 -640 -32
WIRE 160 16 80 16
WIRE 368 16 240 16
WIRE -848 64 -848 -32
WIRE -800 64 -848 64
WIRE -400 64 -544 64
WIRE -400 80 -400 64
WIRE -976 112 -976 96
WIRE -800 128 -864 128
WIRE -496 128 -496 -32
WIRE -496 128 -544 128
WIRE -64 128 -240 128
WIRE 80 128 80 16
WIRE 80 128 16 128
WIRE 160 128 80 128
WIRE 368 144 368 16
WIRE 368 144 224 144
WIRE 160 160 80 160
WIRE -400 176 -400 144
WIRE -240 176 -240 128
WIRE -800 192 -864 192
WIRE -496 192 -544 192
WIRE 368 192 368 144
WIRE -976 240 -976 192
WIRE -832 256 -864 256
WIRE -800 256 -832 256
WIRE -496 256 -544 256
WIRE -496 288 -496 256
WIRE -240 288 -240 256
WIRE -64 288 -240 288
WIRE 80 288 80 160
WIRE 80 288 -64 288
WIRE 368 288 368 272
WIRE 368 288 80 288
WIRE -832 304 -832 256
WIRE -64 320 -64 288
WIRE -832 400 -832 368
FLAG -64 320 0
FLAG 192 112 Vcc
FLAG -240 128 Vin
FLAG 368 16 Vout
FLAG -976 240 0
FLAG -976 96 Vsc
FLAG -864 256 Vee
FLAG -496 288 0
FLAG -496 192 Vsc
FLAG -400 176 0
FLAG -832 400 0
FLAG -400 64 Vcc
FLAG 192 176 Vee
SYMBOL voltage -240 160 R0
WINDOW 123 0 0 Left 0
WINDOW 39 0 0 Left 0
SYMATTR InstName V1
SYMATTR Value SINE(0 1 1000)
SYMBOL OpAmps\\opamp2 192 80 R0
SYMATTR InstName U1
SYMATTR Value LM324
SYMBOL res 32 112 R90
WINDOW 0 0 56 VBottom 2
WINDOW 3 32 56 VTop 2
SYMATTR InstName R1
SYMATTR Value 10k
SYMBOL res 256 0 R90
WINDOW 0 0 56 VBottom 2
WINDOW 3 32 56 VTop 2
SYMATTR InstName R2
SYMATTR Value 20k
SYMBOL res 352 176 R0
SYMATTR InstName R3
SYMATTR Value 50k
SYMBOL voltage -976 96 R0
WINDOW 123 0 0 Left 0
WINDOW 39 0 0 Left 0
SYMATTR InstName V2
SYMATTR Value 9
SYMBOL PowerProducts\\LT1026 -672 160 R0
SYMATTR InstName U4
SYMBOL polcap -640 -48 R90
WINDOW 0 0 32 VBottom 2
WINDOW 3 32 32 VTop 2
SYMATTR InstName C5
SYMATTR Value 1µ
SYMBOL polcap -416 80 R0
SYMATTR InstName C6
SYMATTR Value 1µ
SYMBOL polcap -816 368 R180
WINDOW 0 24 57 Left 2
WINDOW 3 24 8 Left 2
SYMATTR InstName C7
SYMATTR Value 1µ
SYMBOL polcap -880 128 R0
SYMATTR InstName C8
SYMATTR Value 1µ
TEXT -24 368 Left 2 !.include LM324.txt
TEXT -272 392 Left 2 !.tran 5m
