Version 4
SHEET 1 928 680
WIRE 96 128 -16 128
WIRE 144 128 96 128
WIRE 240 128 208 128
WIRE 400 128 240 128
WIRE 416 128 400 128
WIRE 544 128 480 128
WIRE 704 128 544 128
WIRE -16 144 -16 128
WIRE 240 192 240 128
WIRE 400 192 400 128
WIRE 544 192 544 128
WIRE 704 192 704 128
WIRE 96 288 96 128
WIRE 240 336 240 256
WIRE 272 336 240 336
WIRE 400 336 400 256
WIRE 400 336 336 336
WIRE 544 336 544 256
WIRE 544 336 400 336
WIRE 592 336 544 336
WIRE 704 336 704 256
WIRE 704 336 656 336
WIRE 848 336 704 336
WIRE 848 400 848 336
WIRE 704 416 704 336
WIRE -16 448 -16 224
WIRE 96 448 96 368
WIRE 96 448 -16 448
WIRE 240 448 240 336
WIRE 240 448 96 448
WIRE 704 528 704 480
WIRE 784 528 704 528
WIRE 848 528 848 480
WIRE 848 528 784 528
WIRE 96 576 96 448
WIRE 784 576 784 528
FLAG 96 576 0
FLAG 704 336 Vo
FLAG -16 128 Vin
FLAG 784 576 0
SYMBOL voltage -16 128 R0
WINDOW 123 0 0 Left 0
WINDOW 39 0 0 Left 0
WINDOW 3 -175 114 Left 2
SYMATTR Value PULSE(0 9 0 0.1us 0.1us 381u 728u)
SYMATTR InstName V1
SYMBOL polcap 144 144 R270
WINDOW 0 32 32 VTop 2
WINDOW 3 0 32 VBottom 2
SYMATTR InstName C1
SYMATTR Value 220µ
SYMBOL polcap 480 112 R90
WINDOW 0 0 32 VBottom 2
WINDOW 3 32 32 VTop 2
SYMATTR InstName C2
SYMATTR Value 220µ
SYMBOL polcap 336 320 R90
WINDOW 0 0 32 VBottom 2
WINDOW 3 32 32 VTop 2
SYMATTR InstName C3
SYMATTR Value 220µ
SYMBOL polcap 592 352 R270
WINDOW 0 32 32 VTop 2
WINDOW 3 0 32 VBottom 2
SYMATTR InstName C4
SYMATTR Value 220µ
SYMBOL diode 224 192 R0
SYMATTR InstName D1
SYMATTR Value 1N4148
SYMBOL diode 384 256 M180
WINDOW 0 24 64 Left 2
WINDOW 3 24 0 Left 2
SYMATTR InstName D2
SYMATTR Value 1N4148
SYMBOL diode 528 192 R0
SYMATTR InstName D3
SYMATTR Value 1N4148
SYMBOL diode 688 256 M180
WINDOW 0 24 64 Left 2
WINDOW 3 24 0 Left 2
SYMATTR InstName D4
SYMATTR Value 1N4148
SYMBOL res 80 272 R0
SYMATTR InstName R1
SYMATTR Value 100k
SYMBOL polcap 720 480 R180
WINDOW 0 24 57 Left 2
WINDOW 3 24 8 Left 2
SYMATTR InstName C5
SYMATTR Value 1µ
SYMBOL res 832 384 R0
SYMATTR InstName R2
SYMATTR Value 1k
TEXT 328 616 Left 2 !.tran 100m
