Version 4
SHEET 1 12128 3716
WIRE 1504 -2064 1456 -2064
WIRE 1552 -2064 1504 -2064
WIRE 1648 -2064 1552 -2064
WIRE 1744 -2064 1648 -2064
WIRE 1840 -2064 1744 -2064
WIRE 1936 -2064 1840 -2064
WIRE 2032 -2064 1936 -2064
WIRE 2128 -2064 2032 -2064
WIRE 2224 -2064 2128 -2064
WIRE 2320 -2064 2224 -2064
WIRE 2416 -2064 2320 -2064
WIRE 2544 -2064 2416 -2064
WIRE 2848 -2064 2752 -2064
WIRE 2944 -2064 2848 -2064
WIRE 3040 -2064 2944 -2064
WIRE 3136 -2064 3040 -2064
WIRE 3232 -2064 3136 -2064
WIRE 3328 -2064 3232 -2064
WIRE 3424 -2064 3328 -2064
WIRE 3520 -2064 3424 -2064
WIRE 3616 -2064 3520 -2064
WIRE 3712 -2064 3616 -2064
WIRE 3840 -2064 3712 -2064
WIRE 4144 -2064 4048 -2064
WIRE 4240 -2064 4144 -2064
WIRE 4336 -2064 4240 -2064
WIRE 4432 -2064 4336 -2064
WIRE 4528 -2064 4432 -2064
WIRE 4624 -2064 4528 -2064
WIRE 4720 -2064 4624 -2064
WIRE 4816 -2064 4720 -2064
WIRE 4912 -2064 4816 -2064
WIRE 5008 -2064 4912 -2064
WIRE 5136 -2064 5008 -2064
WIRE 5440 -2064 5344 -2064
WIRE 5536 -2064 5440 -2064
WIRE 5632 -2064 5536 -2064
WIRE 5728 -2064 5632 -2064
WIRE 5824 -2064 5728 -2064
WIRE 5920 -2064 5824 -2064
WIRE 6016 -2064 5920 -2064
WIRE 6112 -2064 6016 -2064
WIRE 6208 -2064 6112 -2064
WIRE 6304 -2064 6208 -2064
WIRE 6432 -2064 6304 -2064
WIRE 6720 -2064 6624 -2064
WIRE 6816 -2064 6720 -2064
WIRE 6912 -2064 6816 -2064
WIRE 7008 -2064 6912 -2064
WIRE 7104 -2064 7008 -2064
WIRE 7200 -2064 7104 -2064
WIRE 7296 -2064 7200 -2064
WIRE 7392 -2064 7296 -2064
WIRE 7488 -2064 7392 -2064
WIRE 7584 -2064 7488 -2064
WIRE 7712 -2064 7584 -2064
WIRE 8000 -2064 7904 -2064
WIRE 8096 -2064 8000 -2064
WIRE 8192 -2064 8096 -2064
WIRE 8288 -2064 8192 -2064
WIRE 8384 -2064 8288 -2064
WIRE 8480 -2064 8384 -2064
WIRE 8576 -2064 8480 -2064
WIRE 8672 -2064 8576 -2064
WIRE 8768 -2064 8672 -2064
WIRE 8864 -2064 8768 -2064
WIRE 8992 -2064 8864 -2064
WIRE 9312 -2064 9216 -2064
WIRE 9408 -2064 9312 -2064
WIRE 9504 -2064 9408 -2064
WIRE 9600 -2064 9504 -2064
WIRE 9696 -2064 9600 -2064
WIRE 9792 -2064 9696 -2064
WIRE 9888 -2064 9792 -2064
WIRE 9984 -2064 9888 -2064
WIRE 10080 -2064 9984 -2064
WIRE 10176 -2064 10080 -2064
WIRE 10304 -2064 10176 -2064
WIRE 1552 -2016 1552 -2064
WIRE 1648 -2016 1648 -2064
WIRE 1744 -2016 1744 -2064
WIRE 1840 -2016 1840 -2064
WIRE 1936 -2016 1936 -2064
WIRE 2032 -2016 2032 -2064
WIRE 2128 -2016 2128 -2064
WIRE 2224 -2016 2224 -2064
WIRE 2320 -2016 2320 -2064
WIRE 2416 -2016 2416 -2064
WIRE 2848 -2016 2848 -2064
WIRE 2944 -2016 2944 -2064
WIRE 3040 -2016 3040 -2064
WIRE 3136 -2016 3136 -2064
WIRE 3232 -2016 3232 -2064
WIRE 3328 -2016 3328 -2064
WIRE 3424 -2016 3424 -2064
WIRE 3520 -2016 3520 -2064
WIRE 3616 -2016 3616 -2064
WIRE 3712 -2016 3712 -2064
WIRE 4144 -2016 4144 -2064
WIRE 4240 -2016 4240 -2064
WIRE 4336 -2016 4336 -2064
WIRE 4432 -2016 4432 -2064
WIRE 4528 -2016 4528 -2064
WIRE 4624 -2016 4624 -2064
WIRE 4720 -2016 4720 -2064
WIRE 4816 -2016 4816 -2064
WIRE 4912 -2016 4912 -2064
WIRE 5008 -2016 5008 -2064
WIRE 5440 -2016 5440 -2064
WIRE 5536 -2016 5536 -2064
WIRE 5632 -2016 5632 -2064
WIRE 5728 -2016 5728 -2064
WIRE 5824 -2016 5824 -2064
WIRE 5920 -2016 5920 -2064
WIRE 6016 -2016 6016 -2064
WIRE 6112 -2016 6112 -2064
WIRE 6208 -2016 6208 -2064
WIRE 6304 -2016 6304 -2064
WIRE 6720 -2016 6720 -2064
WIRE 6816 -2016 6816 -2064
WIRE 6912 -2016 6912 -2064
WIRE 7008 -2016 7008 -2064
WIRE 7104 -2016 7104 -2064
WIRE 7200 -2016 7200 -2064
WIRE 7296 -2016 7296 -2064
WIRE 7392 -2016 7392 -2064
WIRE 7488 -2016 7488 -2064
WIRE 7584 -2016 7584 -2064
WIRE 8000 -2016 8000 -2064
WIRE 8096 -2016 8096 -2064
WIRE 8192 -2016 8192 -2064
WIRE 8288 -2016 8288 -2064
WIRE 8384 -2016 8384 -2064
WIRE 8480 -2016 8480 -2064
WIRE 8576 -2016 8576 -2064
WIRE 8672 -2016 8672 -2064
WIRE 8768 -2016 8768 -2064
WIRE 8864 -2016 8864 -2064
WIRE 9312 -2016 9312 -2064
WIRE 9408 -2016 9408 -2064
WIRE 9504 -2016 9504 -2064
WIRE 9600 -2016 9600 -2064
WIRE 9696 -2016 9696 -2064
WIRE 9792 -2016 9792 -2064
WIRE 9888 -2016 9888 -2064
WIRE 9984 -2016 9984 -2064
WIRE 10080 -2016 10080 -2064
WIRE 10176 -2016 10176 -2064
WIRE 2032 -1904 2032 -1952
WIRE 2032 -1904 2000 -1904
WIRE 3328 -1904 3328 -1952
WIRE 3328 -1904 3296 -1904
WIRE 4624 -1904 4624 -1952
WIRE 4624 -1904 4592 -1904
WIRE 5920 -1904 5920 -1952
WIRE 5920 -1904 5888 -1904
WIRE 7200 -1904 7200 -1952
WIRE 7200 -1904 7168 -1904
WIRE 8480 -1904 8480 -1952
WIRE 8480 -1904 8448 -1904
WIRE 9792 -1904 9792 -1952
WIRE 9792 -1904 9760 -1904
WIRE 1936 -1888 1936 -1952
WIRE 2128 -1888 2128 -1952
WIRE 3232 -1888 3232 -1952
WIRE 3424 -1888 3424 -1952
WIRE 4528 -1888 4528 -1952
WIRE 4720 -1888 4720 -1952
WIRE 5824 -1888 5824 -1952
WIRE 6016 -1888 6016 -1952
WIRE 7104 -1888 7104 -1952
WIRE 7296 -1888 7296 -1952
WIRE 8384 -1888 8384 -1952
WIRE 8576 -1888 8576 -1952
WIRE 9696 -1888 9696 -1952
WIRE 9888 -1888 9888 -1952
WIRE 1552 -1872 1552 -1952
WIRE 1840 -1872 1840 -1952
WIRE 1936 -1872 1936 -1888
WIRE 1968 -1872 1936 -1872
WIRE 2000 -1872 2000 -1904
WIRE 2128 -1872 2128 -1888
WIRE 2128 -1872 2032 -1872
WIRE 2224 -1872 2224 -1952
WIRE 2320 -1872 2320 -1952
WIRE 2416 -1872 2416 -1952
WIRE 2848 -1872 2848 -1952
WIRE 3136 -1872 3136 -1952
WIRE 3232 -1872 3232 -1888
WIRE 3264 -1872 3232 -1872
WIRE 3296 -1872 3296 -1904
WIRE 3424 -1872 3424 -1888
WIRE 3424 -1872 3328 -1872
WIRE 3520 -1872 3520 -1952
WIRE 3616 -1872 3616 -1952
WIRE 3712 -1872 3712 -1952
WIRE 4144 -1872 4144 -1952
WIRE 4432 -1872 4432 -1952
WIRE 4528 -1872 4528 -1888
WIRE 4560 -1872 4528 -1872
WIRE 4592 -1872 4592 -1904
WIRE 4720 -1872 4720 -1888
WIRE 4720 -1872 4624 -1872
WIRE 4816 -1872 4816 -1952
WIRE 4912 -1872 4912 -1952
WIRE 5008 -1872 5008 -1952
WIRE 5440 -1872 5440 -1952
WIRE 5728 -1872 5728 -1952
WIRE 5824 -1872 5824 -1888
WIRE 5856 -1872 5824 -1872
WIRE 5888 -1872 5888 -1904
WIRE 6016 -1872 6016 -1888
WIRE 6016 -1872 5920 -1872
WIRE 6112 -1872 6112 -1952
WIRE 6208 -1872 6208 -1952
WIRE 6304 -1872 6304 -1952
WIRE 6720 -1872 6720 -1952
WIRE 7008 -1872 7008 -1952
WIRE 7104 -1872 7104 -1888
WIRE 7136 -1872 7104 -1872
WIRE 7168 -1872 7168 -1904
WIRE 7296 -1872 7296 -1888
WIRE 7296 -1872 7200 -1872
WIRE 7392 -1872 7392 -1952
WIRE 7488 -1872 7488 -1952
WIRE 7584 -1872 7584 -1952
WIRE 8000 -1872 8000 -1952
WIRE 8288 -1872 8288 -1952
WIRE 8384 -1872 8384 -1888
WIRE 8416 -1872 8384 -1872
WIRE 8448 -1872 8448 -1904
WIRE 8576 -1872 8576 -1888
WIRE 8576 -1872 8480 -1872
WIRE 8672 -1872 8672 -1952
WIRE 8768 -1872 8768 -1952
WIRE 8864 -1872 8864 -1952
WIRE 9312 -1872 9312 -1952
WIRE 9600 -1872 9600 -1952
WIRE 9696 -1872 9696 -1888
WIRE 9728 -1872 9696 -1872
WIRE 9760 -1872 9760 -1904
WIRE 9888 -1872 9888 -1888
WIRE 9888 -1872 9792 -1872
WIRE 9984 -1872 9984 -1952
WIRE 10080 -1872 10080 -1952
WIRE 10176 -1872 10176 -1952
WIRE 1648 -1856 1648 -1952
WIRE 1744 -1856 1744 -1952
WIRE 2944 -1856 2944 -1952
WIRE 3040 -1856 3040 -1952
WIRE 4240 -1856 4240 -1952
WIRE 4336 -1856 4336 -1952
WIRE 5536 -1856 5536 -1952
WIRE 5632 -1856 5632 -1952
WIRE 6816 -1856 6816 -1952
WIRE 6912 -1856 6912 -1952
WIRE 8096 -1856 8096 -1952
WIRE 8192 -1856 8192 -1952
WIRE 9408 -1856 9408 -1952
WIRE 9504 -1856 9504 -1952
WIRE 1840 -1840 1840 -1872
WIRE 1936 -1840 1840 -1840
WIRE 2224 -1840 2224 -1872
WIRE 2224 -1840 2064 -1840
WIRE 3136 -1840 3136 -1872
WIRE 3232 -1840 3136 -1840
WIRE 3520 -1840 3520 -1872
WIRE 3520 -1840 3360 -1840
WIRE 4432 -1840 4432 -1872
WIRE 4528 -1840 4432 -1840
WIRE 4816 -1840 4816 -1872
WIRE 4816 -1840 4656 -1840
WIRE 5728 -1840 5728 -1872
WIRE 5824 -1840 5728 -1840
WIRE 6112 -1840 6112 -1872
WIRE 6112 -1840 5952 -1840
WIRE 7008 -1840 7008 -1872
WIRE 7104 -1840 7008 -1840
WIRE 7392 -1840 7392 -1872
WIRE 7392 -1840 7232 -1840
WIRE 8288 -1840 8288 -1872
WIRE 8384 -1840 8288 -1840
WIRE 8672 -1840 8672 -1872
WIRE 8672 -1840 8512 -1840
WIRE 9600 -1840 9600 -1872
WIRE 9696 -1840 9600 -1840
WIRE 9984 -1840 9984 -1872
WIRE 9984 -1840 9824 -1840
WIRE 1744 -1808 1744 -1856
WIRE 1904 -1808 1744 -1808
WIRE 2320 -1808 2320 -1872
WIRE 2320 -1808 2096 -1808
WIRE 3040 -1808 3040 -1856
WIRE 3200 -1808 3040 -1808
WIRE 3616 -1808 3616 -1872
WIRE 3616 -1808 3392 -1808
WIRE 4336 -1808 4336 -1856
WIRE 4496 -1808 4336 -1808
WIRE 4912 -1808 4912 -1872
WIRE 4912 -1808 4688 -1808
WIRE 5632 -1808 5632 -1856
WIRE 5792 -1808 5632 -1808
WIRE 6208 -1808 6208 -1872
WIRE 6208 -1808 5984 -1808
WIRE 6912 -1808 6912 -1856
WIRE 7072 -1808 6912 -1808
WIRE 7488 -1808 7488 -1872
WIRE 7488 -1808 7264 -1808
WIRE 8192 -1808 8192 -1856
WIRE 8352 -1808 8192 -1808
WIRE 8768 -1808 8768 -1872
WIRE 8768 -1808 8544 -1808
WIRE 9504 -1808 9504 -1856
WIRE 9664 -1808 9504 -1808
WIRE 10080 -1808 10080 -1872
WIRE 10080 -1808 9856 -1808
WIRE 1648 -1776 1648 -1856
WIRE 1872 -1776 1648 -1776
WIRE 2416 -1776 2416 -1872
WIRE 2416 -1776 2128 -1776
WIRE 2944 -1776 2944 -1856
WIRE 3168 -1776 2944 -1776
WIRE 3712 -1776 3712 -1872
WIRE 3712 -1776 3424 -1776
WIRE 4240 -1776 4240 -1856
WIRE 4464 -1776 4240 -1776
WIRE 5008 -1776 5008 -1872
WIRE 5008 -1776 4720 -1776
WIRE 5536 -1776 5536 -1856
WIRE 5760 -1776 5536 -1776
WIRE 6304 -1776 6304 -1872
WIRE 6304 -1776 6016 -1776
WIRE 6816 -1776 6816 -1856
WIRE 7040 -1776 6816 -1776
WIRE 7584 -1776 7584 -1872
WIRE 7584 -1776 7296 -1776
WIRE 8096 -1776 8096 -1856
WIRE 8320 -1776 8096 -1776
WIRE 8864 -1776 8864 -1872
WIRE 8864 -1776 8576 -1776
WIRE 9408 -1776 9408 -1856
WIRE 9632 -1776 9408 -1776
WIRE 10176 -1776 10176 -1872
WIRE 10176 -1776 9888 -1776
WIRE 1872 -1760 1872 -1776
WIRE 1904 -1760 1904 -1808
WIRE 1936 -1760 1936 -1840
WIRE 1968 -1760 1968 -1872
WIRE 2000 -1760 2000 -1872
WIRE 2032 -1760 2032 -1872
WIRE 2064 -1760 2064 -1840
WIRE 2096 -1760 2096 -1808
WIRE 2128 -1760 2128 -1776
WIRE 3168 -1760 3168 -1776
WIRE 3200 -1760 3200 -1808
WIRE 3232 -1760 3232 -1840
WIRE 3264 -1760 3264 -1872
WIRE 3296 -1760 3296 -1872
WIRE 3328 -1760 3328 -1872
WIRE 3360 -1760 3360 -1840
WIRE 3392 -1760 3392 -1808
WIRE 3424 -1760 3424 -1776
WIRE 4464 -1760 4464 -1776
WIRE 4496 -1760 4496 -1808
WIRE 4528 -1760 4528 -1840
WIRE 4560 -1760 4560 -1872
WIRE 4592 -1760 4592 -1872
WIRE 4624 -1760 4624 -1872
WIRE 4656 -1760 4656 -1840
WIRE 4688 -1760 4688 -1808
WIRE 4720 -1760 4720 -1776
WIRE 5760 -1760 5760 -1776
WIRE 5792 -1760 5792 -1808
WIRE 5824 -1760 5824 -1840
WIRE 5856 -1760 5856 -1872
WIRE 5888 -1760 5888 -1872
WIRE 5920 -1760 5920 -1872
WIRE 5952 -1760 5952 -1840
WIRE 5984 -1760 5984 -1808
WIRE 6016 -1760 6016 -1776
WIRE 7040 -1760 7040 -1776
WIRE 7072 -1760 7072 -1808
WIRE 7104 -1760 7104 -1840
WIRE 7136 -1760 7136 -1872
WIRE 7168 -1760 7168 -1872
WIRE 7200 -1760 7200 -1872
WIRE 7232 -1760 7232 -1840
WIRE 7264 -1760 7264 -1808
WIRE 7296 -1760 7296 -1776
WIRE 8320 -1760 8320 -1776
WIRE 8352 -1760 8352 -1808
WIRE 8384 -1760 8384 -1840
WIRE 8416 -1760 8416 -1872
WIRE 8448 -1760 8448 -1872
WIRE 8480 -1760 8480 -1872
WIRE 8512 -1760 8512 -1840
WIRE 8544 -1760 8544 -1808
WIRE 8576 -1760 8576 -1776
WIRE 9632 -1760 9632 -1776
WIRE 9664 -1760 9664 -1808
WIRE 9696 -1760 9696 -1840
WIRE 9728 -1760 9728 -1872
WIRE 9760 -1760 9760 -1872
WIRE 9792 -1760 9792 -1872
WIRE 9824 -1760 9824 -1840
WIRE 9856 -1760 9856 -1808
WIRE 9888 -1760 9888 -1776
WIRE 1552 -1536 1552 -1872
WIRE 1872 -1536 1872 -1552
WIRE 1872 -1536 1552 -1536
WIRE 2128 -1536 2128 -1552
WIRE 2544 -1536 2544 -2064
WIRE 2544 -1536 2128 -1536
WIRE 2848 -1536 2848 -1872
WIRE 3168 -1536 3168 -1552
WIRE 3168 -1536 2848 -1536
WIRE 3424 -1536 3424 -1552
WIRE 3840 -1536 3840 -2064
WIRE 3840 -1536 3424 -1536
WIRE 4144 -1536 4144 -1872
WIRE 4464 -1536 4464 -1552
WIRE 4464 -1536 4144 -1536
WIRE 4720 -1536 4720 -1552
WIRE 5136 -1536 5136 -2064
WIRE 5136 -1536 4720 -1536
WIRE 5440 -1536 5440 -1872
WIRE 5760 -1536 5760 -1552
WIRE 5760 -1536 5440 -1536
WIRE 6016 -1536 6016 -1552
WIRE 6432 -1536 6432 -2064
WIRE 6432 -1536 6016 -1536
WIRE 6720 -1536 6720 -1872
WIRE 7040 -1536 7040 -1552
WIRE 7040 -1536 6720 -1536
WIRE 7296 -1536 7296 -1552
WIRE 7712 -1536 7712 -2064
WIRE 7712 -1536 7296 -1536
WIRE 8000 -1536 8000 -1872
WIRE 8320 -1536 8320 -1552
WIRE 8320 -1536 8000 -1536
WIRE 8576 -1536 8576 -1552
WIRE 8992 -1536 8992 -2064
WIRE 8992 -1536 8576 -1536
WIRE 9312 -1536 9312 -1872
WIRE 9632 -1536 9632 -1552
WIRE 9632 -1536 9312 -1536
WIRE 9888 -1536 9888 -1552
WIRE 10304 -1536 10304 -2064
WIRE 10304 -1536 9888 -1536
WIRE 1504 -1520 1504 -2064
WIRE 1904 -1488 1904 -1552
WIRE 1968 -1488 1968 -1552
WIRE 1968 -1488 1904 -1488
WIRE 2064 -1488 2064 -1552
WIRE 2096 -1488 2096 -1552
WIRE 2160 -1488 2096 -1488
WIRE 3200 -1488 3200 -1552
WIRE 3264 -1488 3264 -1552
WIRE 3264 -1488 3200 -1488
WIRE 3360 -1488 3360 -1552
WIRE 3392 -1488 3392 -1552
WIRE 3456 -1488 3392 -1488
WIRE 4496 -1488 4496 -1552
WIRE 4560 -1488 4560 -1552
WIRE 4560 -1488 4496 -1488
WIRE 4656 -1488 4656 -1552
WIRE 4688 -1488 4688 -1552
WIRE 4752 -1488 4688 -1488
WIRE 5792 -1488 5792 -1552
WIRE 5856 -1488 5856 -1552
WIRE 5856 -1488 5792 -1488
WIRE 5952 -1488 5952 -1552
WIRE 5984 -1488 5984 -1552
WIRE 6048 -1488 5984 -1488
WIRE 7072 -1488 7072 -1552
WIRE 7136 -1488 7136 -1552
WIRE 7136 -1488 7072 -1488
WIRE 7232 -1488 7232 -1552
WIRE 7264 -1488 7264 -1552
WIRE 7328 -1488 7264 -1488
WIRE 8352 -1488 8352 -1552
WIRE 8416 -1488 8416 -1552
WIRE 8416 -1488 8352 -1488
WIRE 8512 -1488 8512 -1552
WIRE 8544 -1488 8544 -1552
WIRE 8608 -1488 8544 -1488
WIRE 9664 -1488 9664 -1552
WIRE 9728 -1488 9728 -1552
WIRE 9728 -1488 9664 -1488
WIRE 9824 -1488 9824 -1552
WIRE 9856 -1488 9856 -1552
WIRE 9920 -1488 9856 -1488
WIRE 2064 -1472 2064 -1488
WIRE 2592 -1472 2304 -1472
WIRE 3360 -1472 3360 -1488
WIRE 4656 -1472 4656 -1488
WIRE 5952 -1472 5952 -1488
WIRE 7232 -1472 7232 -1488
WIRE 8512 -1472 8512 -1488
WIRE 9824 -1472 9824 -1488
WIRE 1504 -1424 1504 -1456
WIRE 1904 -1424 1904 -1488
WIRE 1904 -1424 1504 -1424
WIRE 1904 -1392 1904 -1424
WIRE 2304 -1392 2304 -1472
WIRE 2304 -1392 2064 -1392
WIRE 3200 -1392 3200 -1488
WIRE 3456 -1392 3360 -1392
WIRE 4496 -1392 4496 -1488
WIRE 4752 -1392 4656 -1392
WIRE 5792 -1392 5792 -1488
WIRE 6048 -1392 5952 -1392
WIRE 7072 -1392 7072 -1488
WIRE 7328 -1392 7232 -1392
WIRE 8352 -1392 8352 -1488
WIRE 8608 -1392 8512 -1392
WIRE 9664 -1392 9664 -1488
WIRE 9920 -1392 9824 -1392
WIRE 1456 -1344 1456 -2064
WIRE 1936 -1344 1936 -1552
WIRE 1936 -1344 1456 -1344
WIRE 2752 -1344 2752 -2064
WIRE 3232 -1344 3232 -1552
WIRE 3232 -1344 2752 -1344
WIRE 4048 -1344 4048 -2064
WIRE 4528 -1344 4528 -1552
WIRE 4528 -1344 4048 -1344
WIRE 5344 -1344 5344 -2064
WIRE 5824 -1344 5824 -1552
WIRE 5824 -1344 5344 -1344
WIRE 6624 -1344 6624 -2064
WIRE 7104 -1344 7104 -1552
WIRE 7104 -1344 6624 -1344
WIRE 7904 -1344 7904 -2064
WIRE 8384 -1344 8384 -1552
WIRE 8384 -1344 7904 -1344
WIRE 9216 -1344 9216 -2064
WIRE 9696 -1344 9696 -1552
WIRE 9696 -1344 9216 -1344
WIRE 2400 -1328 2272 -1328
WIRE 1936 -1296 1936 -1344
WIRE 3232 -1296 3232 -1344
WIRE 4528 -1296 4528 -1344
WIRE 5824 -1296 5824 -1344
WIRE 7104 -1296 7104 -1344
WIRE 8384 -1296 8384 -1344
WIRE 9696 -1296 9696 -1344
WIRE 2032 -1232 2032 -1552
WIRE 2160 -1232 2032 -1232
WIRE 2272 -1232 2272 -1248
WIRE 2272 -1232 2160 -1232
WIRE 1696 -1216 1696 -1264
WIRE 2272 -1216 2272 -1232
WIRE 3328 -1216 3328 -1552
WIRE 4624 -1216 4624 -1552
WIRE 5920 -1216 5920 -1552
WIRE 7200 -1216 7200 -1552
WIRE 8480 -1216 8480 -1552
WIRE 9792 -1216 9792 -1552
WIRE 2000 -1136 2000 -1552
WIRE 3296 -1136 3296 -1552
WIRE 4592 -1136 4592 -1552
WIRE 5888 -1136 5888 -1552
WIRE 7168 -1136 7168 -1552
WIRE 8448 -1136 8448 -1552
WIRE 9760 -1136 9760 -1552
WIRE 2272 -1120 2272 -1136
WIRE 2592 -944 2592 -1472
WIRE 2784 -944 2592 -944
WIRE 3456 -944 3456 -1392
WIRE 3456 -944 2784 -944
WIRE 4752 -944 4752 -1392
WIRE 4752 -944 3456 -944
WIRE 6048 -944 6048 -1392
WIRE 6048 -944 4752 -944
WIRE 7328 -944 7328 -1392
WIRE 7328 -944 6048 -944
WIRE 8608 -944 8608 -1392
WIRE 8608 -944 7328 -944
WIRE 9920 -944 9920 -1392
WIRE 9920 -944 8608 -944
WIRE -1088 -864 -1088 -896
WIRE 2784 -800 2784 -944
WIRE -1088 -704 -1088 -784
WIRE 2784 -704 2784 -720
WIRE -1088 -528 -1088 -624
WIRE -208 -512 -208 -544
WIRE -32 -512 -32 -544
WIRE -208 -400 -208 -432
WIRE -32 -400 -32 -432
WIRE -1088 -352 -1088 -448
WIRE -384 -336 -432 -336
WIRE -256 -336 -320 -336
WIRE 16 -336 -256 -336
WIRE 304 -336 240 -336
WIRE 560 -336 304 -336
WIRE 720 -336 704 -336
WIRE 848 -336 784 -336
WIRE 1088 -336 848 -336
WIRE 1424 -336 1376 -336
WIRE 1552 -336 1488 -336
WIRE 1824 -336 1552 -336
WIRE 2112 -336 2048 -336
WIRE 2368 -336 2112 -336
WIRE 2528 -336 2512 -336
WIRE 2656 -336 2592 -336
WIRE 2896 -336 2656 -336
WIRE 3232 -336 3184 -336
WIRE 3360 -336 3296 -336
WIRE 3632 -336 3360 -336
WIRE 3920 -336 3856 -336
WIRE 4176 -336 3920 -336
WIRE 4336 -336 4320 -336
WIRE 4464 -336 4400 -336
WIRE 4704 -336 4464 -336
WIRE 5072 -336 5024 -336
WIRE 5200 -336 5136 -336
WIRE 5472 -336 5200 -336
WIRE 5760 -336 5696 -336
WIRE 6016 -336 5760 -336
WIRE 6176 -336 6160 -336
WIRE 6304 -336 6240 -336
WIRE 6544 -336 6304 -336
WIRE 6912 -336 6864 -336
WIRE 7040 -336 6976 -336
WIRE 7312 -336 7040 -336
WIRE 7600 -336 7536 -336
WIRE 7856 -336 7600 -336
WIRE 8016 -336 8000 -336
WIRE 8144 -336 8080 -336
WIRE 8384 -336 8144 -336
WIRE 8768 -336 8720 -336
WIRE 8896 -336 8832 -336
WIRE 9168 -336 8896 -336
WIRE 9456 -336 9392 -336
WIRE 9712 -336 9456 -336
WIRE 9872 -336 9856 -336
WIRE 10000 -336 9936 -336
WIRE 10240 -336 10000 -336
WIRE 10576 -336 10528 -336
WIRE 10704 -336 10640 -336
WIRE 10976 -336 10704 -336
WIRE 11264 -336 11200 -336
WIRE 11520 -336 11264 -336
WIRE 11680 -336 11664 -336
WIRE 11808 -336 11744 -336
WIRE 12048 -336 11808 -336
WIRE -576 -208 -656 -208
WIRE -432 -208 -432 -336
WIRE -432 -208 -496 -208
WIRE -384 -208 -432 -208
WIRE -256 -208 -256 -256
WIRE -256 -208 -320 -208
WIRE -112 -208 -256 -208
WIRE 176 -208 176 -336
WIRE 176 -208 144 -208
WIRE 304 -208 304 -256
WIRE 304 -208 240 -208
WIRE 448 -208 304 -208
WIRE 704 -208 704 -336
WIRE 704 -208 672 -208
WIRE 720 -208 704 -208
WIRE 848 -208 848 -256
WIRE 848 -208 784 -208
WIRE 960 -208 848 -208
WIRE 1232 -208 1152 -208
WIRE 1376 -208 1376 -336
WIRE 1376 -208 1312 -208
WIRE 1424 -208 1376 -208
WIRE 1552 -208 1552 -256
WIRE 1552 -208 1488 -208
WIRE 1696 -208 1552 -208
WIRE 1984 -208 1984 -336
WIRE 1984 -208 1952 -208
WIRE 2112 -208 2112 -256
WIRE 2112 -208 2048 -208
WIRE 2256 -208 2112 -208
WIRE 2512 -208 2512 -336
WIRE 2512 -208 2480 -208
WIRE 2528 -208 2512 -208
WIRE 2656 -208 2656 -256
WIRE 2656 -208 2592 -208
WIRE 2768 -208 2656 -208
WIRE 3040 -208 2960 -208
WIRE 3184 -208 3184 -336
WIRE 3184 -208 3120 -208
WIRE 3232 -208 3184 -208
WIRE 3360 -208 3360 -256
WIRE 3360 -208 3296 -208
WIRE 3504 -208 3360 -208
WIRE 3792 -208 3792 -336
WIRE 3792 -208 3760 -208
WIRE 3920 -208 3920 -256
WIRE 3920 -208 3856 -208
WIRE 4064 -208 3920 -208
WIRE 4320 -208 4320 -336
WIRE 4320 -208 4288 -208
WIRE 4336 -208 4320 -208
WIRE 4464 -208 4464 -256
WIRE 4464 -208 4400 -208
WIRE 4576 -208 4464 -208
WIRE 4880 -208 4800 -208
WIRE 5024 -208 5024 -336
WIRE 5024 -208 4960 -208
WIRE 5072 -208 5024 -208
WIRE 5200 -208 5200 -256
WIRE 5200 -208 5136 -208
WIRE 5344 -208 5200 -208
WIRE 5632 -208 5632 -336
WIRE 5632 -208 5600 -208
WIRE 5760 -208 5760 -256
WIRE 5760 -208 5696 -208
WIRE 5904 -208 5760 -208
WIRE 6160 -208 6160 -336
WIRE 6160 -208 6128 -208
WIRE 6176 -208 6160 -208
WIRE 6304 -208 6304 -256
WIRE 6304 -208 6240 -208
WIRE 6416 -208 6304 -208
WIRE 6720 -208 6640 -208
WIRE 6864 -208 6864 -336
WIRE 6864 -208 6800 -208
WIRE 6912 -208 6864 -208
WIRE 7040 -208 7040 -256
WIRE 7040 -208 6976 -208
WIRE 7184 -208 7040 -208
WIRE 7472 -208 7472 -336
WIRE 7472 -208 7440 -208
WIRE 7600 -208 7600 -256
WIRE 7600 -208 7536 -208
WIRE 7744 -208 7600 -208
WIRE 8000 -208 8000 -336
WIRE 8000 -208 7968 -208
WIRE 8016 -208 8000 -208
WIRE 8144 -208 8144 -256
WIRE 8144 -208 8080 -208
WIRE 8256 -208 8144 -208
WIRE 8576 -208 8496 -208
WIRE 8720 -208 8720 -336
WIRE 8720 -208 8656 -208
WIRE 8768 -208 8720 -208
WIRE 8896 -208 8896 -256
WIRE 8896 -208 8832 -208
WIRE 9040 -208 8896 -208
WIRE 9328 -208 9328 -336
WIRE 9328 -208 9296 -208
WIRE 9456 -208 9456 -256
WIRE 9456 -208 9392 -208
WIRE 9600 -208 9456 -208
WIRE 9856 -208 9856 -336
WIRE 9856 -208 9824 -208
WIRE 9872 -208 9856 -208
WIRE 10000 -208 10000 -256
WIRE 10000 -208 9936 -208
WIRE 10112 -208 10000 -208
WIRE 10384 -208 10304 -208
WIRE 10528 -208 10528 -336
WIRE 10528 -208 10464 -208
WIRE 10576 -208 10528 -208
WIRE 10704 -208 10704 -256
WIRE 10704 -208 10640 -208
WIRE 10848 -208 10704 -208
WIRE 11136 -208 11136 -336
WIRE 11136 -208 11104 -208
WIRE 11264 -208 11264 -256
WIRE 11264 -208 11200 -208
WIRE 11408 -208 11264 -208
WIRE 11664 -208 11664 -336
WIRE 11664 -208 11632 -208
WIRE 11680 -208 11664 -208
WIRE 11808 -208 11808 -256
WIRE 11808 -208 11744 -208
WIRE 11920 -208 11808 -208
WIRE 16 -192 16 -336
WIRE 16 -192 -48 -192
WIRE 64 -192 64 -208
WIRE 64 -192 16 -192
WIRE 560 -192 560 -336
WIRE 560 -192 512 -192
WIRE 592 -192 592 -208
WIRE 592 -192 560 -192
WIRE 1088 -192 1088 -336
WIRE 1088 -192 1024 -192
WIRE 1824 -192 1824 -336
WIRE 1824 -192 1760 -192
WIRE 1872 -192 1872 -208
WIRE 1872 -192 1824 -192
WIRE 2368 -192 2368 -336
WIRE 2368 -192 2320 -192
WIRE 2400 -192 2400 -208
WIRE 2400 -192 2368 -192
WIRE 2896 -192 2896 -336
WIRE 2896 -192 2832 -192
WIRE 3632 -192 3632 -336
WIRE 3632 -192 3568 -192
WIRE 3680 -192 3680 -208
WIRE 3680 -192 3632 -192
WIRE 4176 -192 4176 -336
WIRE 4176 -192 4128 -192
WIRE 4208 -192 4208 -208
WIRE 4208 -192 4176 -192
WIRE 4704 -192 4704 -336
WIRE 4704 -192 4640 -192
WIRE 5472 -192 5472 -336
WIRE 5472 -192 5408 -192
WIRE 5520 -192 5520 -208
WIRE 5520 -192 5472 -192
WIRE 6016 -192 6016 -336
WIRE 6016 -192 5968 -192
WIRE 6048 -192 6048 -208
WIRE 6048 -192 6016 -192
WIRE 6544 -192 6544 -336
WIRE 6544 -192 6480 -192
WIRE 7312 -192 7312 -336
WIRE 7312 -192 7248 -192
WIRE 7360 -192 7360 -208
WIRE 7360 -192 7312 -192
WIRE 7856 -192 7856 -336
WIRE 7856 -192 7808 -192
WIRE 7888 -192 7888 -208
WIRE 7888 -192 7856 -192
WIRE 8384 -192 8384 -336
WIRE 8384 -192 8320 -192
WIRE 9168 -192 9168 -336
WIRE 9168 -192 9104 -192
WIRE 9216 -192 9216 -208
WIRE 9216 -192 9168 -192
WIRE 9712 -192 9712 -336
WIRE 9712 -192 9664 -192
WIRE 9744 -192 9744 -208
WIRE 9744 -192 9712 -192
WIRE 10240 -192 10240 -336
WIRE 10240 -192 10176 -192
WIRE 10976 -192 10976 -336
WIRE 10976 -192 10912 -192
WIRE 11024 -192 11024 -208
WIRE 11024 -192 10976 -192
WIRE 11520 -192 11520 -336
WIRE 11520 -192 11472 -192
WIRE 11552 -192 11552 -208
WIRE 11552 -192 11520 -192
WIRE 12048 -192 12048 -336
WIRE 12048 -192 11984 -192
WIRE -432 -176 -432 -208
WIRE -112 -176 -176 -176
WIRE 448 -176 352 -176
WIRE 960 -176 864 -176
WIRE 1696 -176 1632 -176
WIRE 2256 -176 2160 -176
WIRE 2768 -176 2672 -176
WIRE 3504 -176 3408 -176
WIRE 4064 -176 3968 -176
WIRE 4576 -176 4480 -176
WIRE 5344 -176 5280 -176
WIRE 5904 -176 5808 -176
WIRE 6416 -176 6320 -176
WIRE 7184 -176 7120 -176
WIRE 7744 -176 7648 -176
WIRE 8256 -176 8160 -176
WIRE 9040 -176 8976 -176
WIRE 9600 -176 9504 -176
WIRE 10112 -176 10016 -176
WIRE 10848 -176 10784 -176
WIRE 11408 -176 11312 -176
WIRE 11920 -176 11824 -176
WIRE -1088 -160 -1088 -272
WIRE 176 -160 176 -208
WIRE 704 -160 704 -208
WIRE 1824 -160 1824 -192
WIRE 1984 -160 1984 -208
WIRE 2512 -160 2512 -208
WIRE 3184 -160 3184 -208
WIRE 3792 -160 3792 -208
WIRE 4320 -160 4320 -208
WIRE 5632 -160 5632 -208
WIRE 6160 -160 6160 -208
WIRE 6864 -160 6864 -208
WIRE 7472 -160 7472 -208
WIRE 8000 -160 8000 -208
WIRE 8720 -160 8720 -208
WIRE 9328 -160 9328 -208
WIRE 9856 -160 9856 -208
WIRE 10528 -160 10528 -208
WIRE 11136 -160 11136 -208
WIRE 11664 -160 11664 -208
WIRE 5472 -144 5472 -192
WIRE -432 -80 -432 -96
WIRE -176 -80 -176 -176
WIRE 176 -64 176 -80
WIRE 352 -64 352 -176
WIRE 704 -64 704 -80
WIRE 864 -64 864 -176
WIRE 1632 -64 1632 -176
WIRE 1824 -64 1824 -80
WIRE 1824 -64 1632 -64
WIRE 1984 -64 1984 -80
WIRE 2160 -64 2160 -176
WIRE 2512 -64 2512 -80
WIRE 2672 -64 2672 -176
WIRE 3184 -64 3184 -80
WIRE 3408 -64 3408 -176
WIRE 3792 -64 3792 -80
WIRE 3968 -64 3968 -176
WIRE 4320 -64 4320 -80
WIRE 4480 -64 4480 -176
WIRE 5632 -64 5632 -80
WIRE 5808 -64 5808 -176
WIRE 6160 -64 6160 -80
WIRE 6320 -64 6320 -176
WIRE 6864 -64 6864 -80
WIRE 7120 -64 7120 -176
WIRE 7472 -64 7472 -80
WIRE 7648 -64 7648 -176
WIRE 8000 -64 8000 -80
WIRE 8160 -64 8160 -176
WIRE 8720 -64 8720 -80
WIRE 8976 -64 8976 -176
WIRE 9328 -64 9328 -80
WIRE 9504 -64 9504 -176
WIRE 9856 -64 9856 -80
WIRE 10016 -64 10016 -176
WIRE 10528 -64 10528 -80
WIRE 10784 -64 10784 -176
WIRE 11136 -64 11136 -80
WIRE 11312 -64 11312 -176
WIRE 11664 -64 11664 -80
WIRE 11824 -64 11824 -176
WIRE 5280 -48 5280 -176
WIRE 5472 -48 5472 -64
WIRE 5472 -48 5280 -48
WIRE 1824 -32 1824 -64
WIRE 5472 -32 5472 -48
WIRE -1088 0 -1088 -80
WIRE 1824 64 1824 48
WIRE 5472 80 5472 48
WIRE -1088 160 -1088 80
WIRE -1088 272 -1088 240
FLAG 352 -64 0
FLAG -1088 -896 Vi
FLAG 864 -64 0
FLAG 704 -64 0
FLAG 176 -64 0
FLAG -432 -80 0
FLAG -176 -80 0
FLAG -80 -160 Vee
FLAG -80 -224 Vcc
FLAG 480 -160 Vee
FLAG 480 -224 Vcc
FLAG 992 -160 Vee
FLAG 992 -224 Vcc
FLAG -208 -544 Vcc
FLAG -208 -400 0
FLAG -32 -400 0
FLAG -32 -544 Vee
FLAG 2160 -64 0
FLAG 1152 -208 Vi
FLAG 2672 -64 0
FLAG 2512 -64 0
FLAG 1984 -64 0
FLAG 1824 64 0
FLAG 1728 -160 Vee
FLAG 1728 -224 Vcc
FLAG 2288 -160 Vee
FLAG 2288 -224 Vcc
FLAG 2800 -160 Vee
FLAG 2800 -224 Vcc
FLAG 3968 -64 0
FLAG 2960 -208 Vi
FLAG 4480 -64 0
FLAG 4320 -64 0
FLAG 3792 -64 0
FLAG 3408 -64 0
FLAG 3184 -64 0
FLAG 3536 -160 Vee
FLAG 3536 -224 Vcc
FLAG 4608 -160 Vee
FLAG 4608 -224 Vcc
FLAG 4096 -160 Vee
FLAG 4096 -224 Vcc
FLAG 5808 -64 0
FLAG 4800 -208 Vi
FLAG 6320 -64 0
FLAG 6160 -64 0
FLAG 5632 -64 0
FLAG 5472 80 0
FLAG 5376 -160 Vee
FLAG 5376 -224 Vcc
FLAG 5936 -160 Vee
FLAG 5936 -224 Vcc
FLAG 6448 -160 Vee
FLAG 6448 -224 Vcc
FLAG 7648 -64 0
FLAG 6640 -208 Vi
FLAG 8160 -64 0
FLAG 8000 -64 0
FLAG 7472 -64 0
FLAG 6864 -64 0
FLAG 7120 -64 0
FLAG 7216 -160 Vee
FLAG 7216 -224 Vcc
FLAG 7776 -160 Vee
FLAG 7776 -224 Vcc
FLAG 8288 -160 Vee
FLAG 8288 -224 Vcc
FLAG 9504 -64 0
FLAG 8496 -208 Vi
FLAG 10016 -64 0
FLAG 9856 -64 0
FLAG 9328 -64 0
FLAG 8720 -64 0
FLAG 8976 -64 0
FLAG 9072 -160 Vee
FLAG 9072 -224 Vcc
FLAG 9632 -160 Vee
FLAG 9632 -224 Vcc
FLAG 10144 -160 Vee
FLAG 10144 -224 Vcc
FLAG 11312 -64 0
FLAG -1088 272 0
FLAG 10304 -208 Vi
FLAG 11824 -64 0
FLAG 11664 -64 0
FLAG 11136 -64 0
FLAG 10528 -64 0
FLAG 10784 -64 0
FLAG 10880 -160 Vee
FLAG 10880 -224 Vcc
FLAG 11440 -160 Vee
FLAG 11440 -224 Vcc
FLAG 11952 -160 Vee
FLAG 11952 -224 Vcc
FLAG -656 -208 Vi
FLAG 1088 -336 VSubBass
FLAG 2896 -336 VBass
FLAG 4704 -336 VLowMid
FLAG 6544 -336 VMid
FLAG 8384 -336 VUpperMid
FLAG 10240 -336 VPresence
FLAG 12048 -336 VBrilliance
FLAG -192 144 Vee
FLAG -192 80 Vcc
FLAG 0 144 Vee
FLAG 0 80 Vcc
FLAG 176 144 Vee
FLAG 176 80 Vcc
FLAG 1904 -1392 0
FLAG 1696 -1136 0
FLAG 1696 -1264 Vs
FLAG 2272 -1120 0
FLAG 1936 -1296 Vs
FLAG 1552 -1872 LED1
FLAG 1648 -1856 LED2
FLAG 1744 -1856 LED3
FLAG 1840 -1872 LED4
FLAG 1936 -1888 LED5
FLAG 2000 -1872 LED6
FLAG 2128 -1888 LED7
FLAG 2224 -1872 LED8
FLAG 2320 -1872 LED9
FLAG 2416 -1872 LED10
FLAG 2064 -1488 Vref1
FLAG 2160 -1232 Vrhi
FLAG 3200 -1392 0
FLAG 3232 -1296 Vs
FLAG 2848 -1872 LED11
FLAG 2944 -1856 LED12
FLAG 3040 -1856 LED13
FLAG 3136 -1872 LED14
FLAG 3232 -1888 LED15
FLAG 3296 -1872 LED16
FLAG 3424 -1888 LED17
FLAG 3520 -1872 LED18
FLAG 3616 -1872 LED19
FLAG 3712 -1872 LED20
FLAG 3360 -1488 Vref2
FLAG 3328 -1216 Vrhi
FLAG 4496 -1392 0
FLAG 4528 -1296 Vs
FLAG 4144 -1872 LED21
FLAG 4240 -1856 LED22
FLAG 4336 -1856 LED23
FLAG 4432 -1872 LED24
FLAG 4528 -1888 LED25
FLAG 4592 -1872 LED26
FLAG 4720 -1888 LED27
FLAG 4816 -1872 LED28
FLAG 4912 -1872 LED29
FLAG 5008 -1872 LED30
FLAG 4656 -1488 Vref3
FLAG 4624 -1216 Vrhi
FLAG 5792 -1392 0
FLAG 5824 -1296 Vs
FLAG 5440 -1872 LED31
FLAG 5536 -1856 LED32
FLAG 5632 -1856 LED33
FLAG 5728 -1872 LED34
FLAG 5824 -1888 LED35
FLAG 5888 -1872 LED36
FLAG 6016 -1888 LED37
FLAG 6112 -1872 LED38
FLAG 6208 -1872 LED39
FLAG 6304 -1872 LED40
FLAG 5952 -1488 Vref4
FLAG 5920 -1216 Vrhi
FLAG 7072 -1392 0
FLAG 7104 -1296 Vs
FLAG 6720 -1872 LED41
FLAG 6816 -1856 LED42
FLAG 6912 -1856 LED43
FLAG 7008 -1872 LED44
FLAG 7104 -1888 LED45
FLAG 7168 -1872 LED46
FLAG 7296 -1888 LED47
FLAG 7392 -1872 LED48
FLAG 7488 -1872 LED49
FLAG 7584 -1872 LED50
FLAG 7232 -1488 Vref5
FLAG 7200 -1216 Vrhi
FLAG 8352 -1392 0
FLAG 8384 -1296 Vs
FLAG 8000 -1872 LED51
FLAG 8096 -1856 LED52
FLAG 8192 -1856 LED53
FLAG 8288 -1872 LED54
FLAG 8384 -1888 LED55
FLAG 8448 -1872 LED56
FLAG 8576 -1888 LED57
FLAG 8672 -1872 LED58
FLAG 8768 -1872 LED59
FLAG 8864 -1872 LED60
FLAG 8512 -1488 Vref6
FLAG 8480 -1216 Vrhi
FLAG 9664 -1392 0
FLAG 9696 -1296 Vs
FLAG 9312 -1872 LED61
FLAG 9408 -1856 LED62
FLAG 9504 -1856 LED63
FLAG 9600 -1872 LED64
FLAG 9696 -1888 LED65
FLAG 9760 -1872 LED66
FLAG 9888 -1888 LED67
FLAG 9984 -1872 LED68
FLAG 10080 -1872 LED69
FLAG 10176 -1872 LED70
FLAG 9824 -1488 Vref7
FLAG 9792 -1216 Vrhi
FLAG 2784 -704 0
FLAG 2160 -1488 0
FLAG 3456 -1488 0
FLAG 4752 -1488 0
FLAG 6048 -1488 0
FLAG 7328 -1488 0
FLAG 8608 -1488 0
FLAG 9920 -1488 0
FLAG 2000 -1136 VSubBass
FLAG 3296 -1136 VBass
FLAG 4592 -1136 VLowMid
FLAG 5888 -1136 VMid
FLAG 7168 -1136 VUpperMid
FLAG 8448 -1136 VPresence
FLAG 9760 -1136 VBrilliance
FLAG 2400 -1328 Vs
SYMBOL res -480 -224 R90
WINDOW 0 0 56 VBottom 2
WINDOW 3 32 56 VTop 2
SYMATTR InstName R1
SYMATTR Value 84.5k
SYMBOL voltage -1088 -880 R0
WINDOW 123 24 124 Left 2
WINDOW 39 0 0 Left 0
SYMATTR Value2 AC 1
SYMATTR InstName V1
SYMATTR Value SINE(0 0.01 40)
SYMBOL res -448 -192 R0
SYMATTR InstName R2
SYMATTR Value 160k
SYMBOL res -272 -352 R0
SYMATTR InstName R3
SYMATTR Value 169k
SYMBOL res 160 -224 R90
WINDOW 0 0 56 VBottom 2
WINDOW 3 32 56 VTop 2
SYMATTR InstName R4
SYMATTR Value 90.9k
SYMBOL res 192 -64 R180
WINDOW 0 36 76 Left 2
WINDOW 3 36 40 Left 2
SYMATTR InstName R5
SYMATTR Value 37.4k
SYMBOL res 320 -240 R180
WINDOW 0 36 76 Left 2
WINDOW 3 36 40 Left 2
SYMATTR InstName R6
SYMATTR Value 402k
SYMBOL res 576 -192 R270
WINDOW 0 32 56 VTop 2
WINDOW 3 0 56 VBottom 2
SYMATTR InstName R7
SYMATTR Value 86.6k
SYMBOL res 688 -176 R0
SYMATTR InstName R8
SYMATTR Value 35.7k
SYMBOL res 832 -352 R0
SYMATTR InstName R9
SYMATTR Value 390k
SYMBOL cap -320 -352 R90
WINDOW 0 0 32 VBottom 2