1
9
.tran 10u 0.1{return}{return}
2
1
Net-(R1-Pad1)
V
1
Net-(R1-Pad2)
V
