Version 4
SHEET 1 896 680
WIRE 400 -16 32 -16
WIRE 608 -16 400 -16
WIRE 400 48 400 -16
WIRE 608 48 608 -16
WIRE 32 128 32 -16
WIRE 400 176 400 112
WIRE 400 176 336 176
WIRE 464 176 400 176
WIRE 608 176 608 112
WIRE 608 176 544 176
WIRE 336 192 336 176
WIRE 400 208 400 176
WIRE 608 208 608 176
WIRE 32 336 32 208
WIRE 400 336 400 272
WIRE 400 336 32 336
WIRE 608 336 608 272
WIRE 608 336 400 336
FLAG 32 -16 Vin
FLAG 608 176 Rout
FLAG 336 192 0
SYMBOL diode 592 48 R0
SYMATTR InstName D1
SYMBOL diode 384 208 R0
SYMATTR InstName D2
SYMBOL diode 624 272 R180
WINDOW 0 24 64 Left 2
WINDOW 3 24 0 Left 2
SYMATTR InstName D3
SYMBOL diode 416 112 R180
WINDOW 0 24 64 Left 2
WINDOW 3 24 0 Left 2
SYMATTR InstName D4
SYMBOL Misc\\battery 32 112 R0
WINDOW 123 24 132 Left 2
WINDOW 39 0 0 Left 0
SYMATTR InstName V2
SYMATTR Value SINE(0 5 20)
SYMATTR Value2 AC 10
SYMBOL res 560 160 R90
WINDOW 0 0 56 VBottom 2
WINDOW 3 32 56 VTop 2
SYMATTR InstName R1
SYMATTR Value 100
TEXT -138 274 Left 2 !.tran 1
