Version 4
SHEET 1 1296 680
WIRE -32 48 -192 48
WIRE 192 48 32 48
WIRE 528 48 368 48
WIRE 752 48 592 48
WIRE 1040 48 880 48
WIRE 1264 48 1104 48
WIRE -304 144 -384 144
WIRE -192 144 -192 48
WIRE -192 144 -224 144
WIRE -160 144 -192 144
WIRE -32 144 -80 144
WIRE 64 144 -32 144
WIRE 272 144 224 144
WIRE 368 144 368 48
WIRE 368 144 352 144
WIRE 400 144 368 144
WIRE 528 144 480 144
WIRE 624 144 528 144
WIRE 880 144 880 48
WIRE 880 144 864 144
WIRE 912 144 880 144
WIRE 1040 144 992 144
WIRE 1136 144 1040 144
WIRE -32 160 -32 144
WIRE 192 160 192 48
WIRE 192 160 128 160
WIRE 224 160 224 144
WIRE 224 160 192 160
WIRE 528 160 528 144
WIRE 752 160 752 48
WIRE 752 160 688 160
WIRE 784 160 784 144
WIRE 784 160 752 160
WIRE 1040 160 1040 144
WIRE 1264 160 1264 48
WIRE 1264 160 1200 160
WIRE -384 176 -384 144
WIRE 64 176 32 176
WIRE 624 176 608 176
WIRE 1136 176 1120 176
WIRE 32 256 32 176
WIRE 192 256 192 160
WIRE 192 256 32 256
WIRE 608 256 608 176
WIRE 752 256 752 160
WIRE 752 256 608 256
WIRE 1120 256 1120 176
WIRE 1264 256 1264 160
WIRE 1264 256 1120 256
WIRE -384 288 -384 256
WIRE -32 288 -32 224
WIRE 528 288 528 224
WIRE 1040 288 1040 224
FLAG -32 288 0
FLAG 528 288 0
FLAG -384 288 0
FLAG 192 48 F1
FLAG 752 48 F2
FLAG -384 144 Vi
FLAG 1040 288 0
FLAG 1264 48 F3
SYMBOL OpAmps\\opamp 96 224 M180
SYMATTR InstName U1
SYMBOL OpAmps\\opamp 656 224 M180
SYMATTR InstName U2
SYMBOL res -208 128 R90
WINDOW 0 0 56 VBottom 2
WINDOW 3 32 56 VTop 2
SYMATTR InstName R1
SYMATTR Value 379k
SYMBOL res -64 128 R90
WINDOW 0 0 56 VBottom 2
WINDOW 3 32 56 VTop 2
SYMATTR InstName R2
SYMATTR Value 379k
SYMBOL res 368 128 R90
WINDOW 0 0 56 VBottom 2
WINDOW 3 32 56 VTop 2
SYMATTR InstName R3
SYMATTR Value 73.3k
SYMBOL res 496 128 R90
WINDOW 0 0 56 VBottom 2
WINDOW 3 32 56 VTop 2
SYMATTR InstName R4
SYMATTR Value 1.32Meg
SYMBOL cap -48 160 R0
SYMATTR InstName C1
SYMATTR Value 1.8n
SYMBOL cap 512 160 R0
SYMATTR InstName C2
SYMATTR Value 2.7n
SYMBOL cap 32 32 R90
WINDOW 0 0 32 VBottom 2
WINDOW 3 32 32 VTop 2
SYMATTR InstName C3
SYMATTR Value 27n
SYMBOL cap 592 32 R90
WINDOW 0 0 32 VBottom 2
WINDOW 3 32 32 VTop 2
SYMATTR InstName C4
SYMATTR Value 27n
SYMBOL voltage -384 160 R0
WINDOW 123 24 124 Left 2
WINDOW 39 0 0 Left 0
SYMATTR InstName V1
SYMATTR Value SINE(0 1 55)
SYMATTR Value2 AC 1
SYMBOL OpAmps\\opamp 1168 224 M180
SYMATTR InstName U3
SYMBOL res 880 128 R90
WINDOW 0 0 56 VBottom 2
WINDOW 3 32 56 VTop 2
SYMATTR InstName R5
SYMATTR Value 52.3k
SYMBOL res 1008 128 R90
WINDOW 0 0 56 VBottom 2
WINDOW 3 32 56 VTop 2
SYMATTR InstName R6
SYMATTR Value 1.84Meg
SYMBOL cap 1024 160 R0
SYMATTR InstName C5
SYMATTR Value 2.7n
SYMBOL cap 1104 32 R90
WINDOW 0 0 32 VBottom 2
WINDOW 3 32 32 VTop 2
SYMATTR InstName C6
SYMATTR Value 27n
TEXT 120 360 Left 2 !;tran 1
TEXT 168 -16 Left 2 !.lib opamp.sub
TEXT 120 400 Left 2 !.ac dec 10 1 250
