1
9
.tran 10u 100m{return}{return}
3
1
/F1
V
1
/Vrc
V
1
Net-(U1-Pad6)
V
