1
9
.tran 10u 500m uic{return}{return}
2
1
/F1
V
1
/Vsig
V
