Version 4
SHEET 1 880 680
WIRE 304 64 32 64
WIRE 544 64 368 64
WIRE 32 144 32 64
WIRE 544 144 544 64
WIRE 32 288 32 224
WIRE 304 288 32 288
WIRE 544 288 544 224
WIRE 544 288 304 288
WIRE 304 320 304 288
FLAG 304 320 0
FLAG 32 64 Vin
FLAG 544 64 Vo
SYMBOL voltage 32 128 R0
WINDOW 123 24 124 Left 2
WINDOW 39 0 0 Left 0
SYMATTR InstName V1
SYMATTR Value SINE(0 10 10)
SYMATTR Value2 AC 1
SYMBOL diode 304 80 R270
WINDOW 0 32 32 VTop 2
WINDOW 3 0 32 VBottom 2
SYMATTR InstName D1
SYMBOL res 528 128 R0
SYMATTR InstName R1
SYMATTR Value 10k
TEXT 40 360 Left 2 !.tran 1
