Version 4
SHEET 1 880 680
WIRE 784 16 16 16
WIRE 688 48 448 48
WIRE 16 80 16 16
WIRE 96 80 16 80
WIRE 400 80 352 80
WIRE 448 80 448 48
WIRE 448 80 400 80
WIRE 512 80 448 80
WIRE 688 80 688 48
WIRE 96 144 -112 144
WIRE 448 144 400 144
WIRE 512 144 448 144
WIRE -112 176 -112 144
WIRE 448 176 448 144
WIRE 688 176 688 160
WIRE 96 208 0 208
WIRE 400 208 352 208
WIRE 496 208 400 208
WIRE 784 208 784 16
WIRE 784 208 576 208
WIRE 0 224 0 208
WIRE -112 272 -112 240
WIRE 96 272 -112 272
WIRE 432 272 352 272
WIRE 432 304 432 272
WIRE 496 304 432 304
WIRE 784 304 784 208
WIRE 784 304 576 304
WIRE 320 384 208 384
WIRE 432 384 432 304
WIRE 432 384 384 384
WIRE 512 384 432 384
WIRE 784 384 784 304
WIRE 784 384 576 384
WIRE 208 416 208 384
WIRE 432 464 432 384
WIRE 432 576 432 544
FLAG 0 224 0
FLAG 688 176 0
FLAG 448 176 0
FLAG 208 416 0
FLAG 432 384 Vout
FLAG 432 576 0
FLAG 784 16 VFb
FLAG 400 208 Vref
FLAG 448 48 Vin
SYMBOL PowerProducts\\LT1054 224 176 R0
SYMATTR InstName U1
SYMBOL voltage 688 64 R0
WINDOW 123 0 0 Left 0
WINDOW 39 0 0 Left 0
SYMATTR InstName V1
SYMATTR Value 9
SYMBOL res 592 192 R90
WINDOW 0 0 56 VBottom 2
WINDOW 3 32 56 VTop 2
SYMATTR InstName R1
SYMATTR Value 20k
SYMBOL res 592 288 R90
WINDOW 0 0 56 VBottom 2
WINDOW 3 32 56 VTop 2
SYMATTR InstName R2
SYMATTR Value 102k
SYMBOL res 416 448 R0
SYMATTR InstName R3
SYMATTR Value 330
SYMBOL polcap -128 176 R0
SYMATTR InstName C5
SYMATTR Value 10µ
SYMBOL polcap 512 400 R270
WINDOW 0 32 32 VTop 2
WINDOW 3 0 32 VBottom 2
SYMATTR InstName C7
SYMATTR Value 0.002µ
SYMBOL polcap 320 400 R270
WINDOW 0 32 32 VTop 2
WINDOW 3 0 32 VBottom 2
SYMATTR InstName C8
SYMATTR Value 100µ
SYMBOL cap 384 80 R0
SYMATTR InstName C1
SYMATTR Value 1µ
SYMBOL cap 496 80 R0
SYMATTR InstName C2
SYMATTR Value 1µ
TEXT -128 440 Left 2 !.tran 30m uic
TEXT -136 488 Left 2 ;To get Vo = -5V referenced to ground:\n-Let R1 = 20kohms and Vref = 2.5V (nominal)\n-R2 = R1[|Vo|/(0.5xVref - 40mV)+1]
