1
9
.tran 10u 500m{return}{return}
5
1
+5V
V
1
-5V
V
1
/F1
V
1
/Vsig
V
1
Net-(R2-Pad1)
V
